======= spectralDNS =======

Spectral solvers for Direct Numerical Simulations
  * Navier Stokes
  * MagnetoHydroDynamics
  * Boussinesq

